<?xml version="1.0" encoding="UTF-8"?>

<!-- generated on 2025-01-23 10:30:54 by Eclipse SUMO netedit Version 1.20.0
-->

<routes xmlns:xsi="http://www.w3.org/2001/XMLSchema-instance" xsi:noNamespaceSchemaLocation="http://sumo.dlr.de/xsd/routes_file.xsd">
    <!-- VTypes -->
    <vType id="bus_bus" vClass="bus"/>
    <vType id="motorcycle_motorcycle" vClass="motorcycle"/>
    <vType id="ped_pedestrian" vClass="pedestrian"/>
    <vType id="truck_truck" vClass="truck"/>
    <vType id="veh_passenger" vClass="passenger"/>
    <!-- Vehicles, persons and containers (sorted by depart) -->
    <trip id="bus0" type="bus_bus" depart="0.00" departLane="best" departSpeed="max" from="48726959#0" to="13858379#1"/>
    <trip id="motorcycle0" type="motorcycle_motorcycle" depart="0.00" departLane="best" departSpeed="max" from="51193425" to="-187888351#0"/>
    <trip id="truck0" type="truck_truck" depart="0.00" departLane="best" departSpeed="max" from="48726959#0" to="13858379#1"/>
    <trip id="veh0" type="veh_passenger" depart="0.00" departLane="best" departSpeed="max" from="51193425" to="-199430413"/>
    <person id="ped0" type="ped_pedestrian" depart="0.00">
        <walk edges="391277037#0 391277037#1 391277035#1 391277548#2 391277549 391277550 391277552 -51193425 -1117292685#0 -1117292685#1"/>
    </person>
    <trip id="veh1" type="veh_passenger" depart="1.56" departLane="best" from="313240782" to="1117292685#5"/>
    <trip id="motorcycle2" type="motorcycle_motorcycle" depart="2.49" departLane="best" departSpeed="max" from="51911937" to="196287359#8"/>
    <trip id="bus1" type="bus_bus" depart="3.08" departLane="best" from="311545831" to="-187888350"/>
    <trip id="veh2" type="veh_passenger" depart="3.12" departLane="best" departSpeed="max" from="51911937" to="196287359#8"/>
    <person id="ped2" type="ped_pedestrian" depart="4.44">
        <walk edges="391277043 391277042 391277040 391277035#0 391277035#1 391277037#1 391277038 391277039"/>
    </person>
    <trip id="veh3" type="veh_passenger" depart="4.68" departLane="best" departSpeed="max" from="51911937" to="389274952#5"/>
    <trip id="motorcycle4" type="motorcycle_motorcycle" depart="4.99" departLane="best" departSpeed="max" from="48726959#0" to="-196287358"/>
    <trip id="bus2" type="bus_bus" depart="6.16" departLane="best" from="557373219" to="196287359#8"/>
    <trip id="motorcycle5" type="motorcycle_motorcycle" depart="6.24" departLane="best" from="196287359#2" to="196287359#6"/>
    <trip id="veh4" type="veh_passenger" depart="6.24" departLane="best" from="232726953" to="1117292685#0"/>
    <person id="ped3" type="ped_pedestrian" depart="6.66">
        <walk edges="391279057 391279055 -391279054 391277548#1 391277548#2 391277549 391277550 391277552 -51193425 -1117292685#0 -1117292685#1 -1117292685#2 -1117292685#3 -1117292685#4 -1117292685#5 -1117292685#6"/>
    </person>
    <trip id="veh5" type="veh_passenger" depart="7.79" departLane="best" departSpeed="max" from="51193425" to="196287359#8"/>
    <trip id="motorcycle7" type="motorcycle_motorcycle" depart="8.73" departLane="best" departSpeed="max" from="51193425" to="196287359#8"/>
    <trip id="bus3" type="bus_bus" depart="9.24" departLane="best" departSpeed="max" from="48726959#0" to="1121959023"/>
    <trip id="veh6" type="veh_passenger" depart="9.35" departLane="best" departSpeed="max" from="51911937" to="1112257651"/>
    <trip id="motorcycle8" type="motorcycle_motorcycle" depart="9.98" departLane="best" from="196287359#3" to="196287359#8"/>
    <trip id="veh7" type="veh_passenger" depart="10.91" departLane="best" departSpeed="max" from="51911937" to="200538746"/>
    <person id="ped5" type="ped_pedestrian" depart="11.10">
        <walk edges="-385396540#0 1102629654 -51911937"/>
    </person>
    <trip id="motorcycle10" type="motorcycle_motorcycle" depart="12.47" departLane="best" departSpeed="max" from="51911937" to="196287359#8"/>
    <trip id="truck4" type="truck_truck" depart="12.47" departLane="best" from="1117292685#6" to="-552411650#1"/>
    <trip id="veh8" type="veh_passenger" depart="12.47" departLane="best" from="389274952#2" to="-552411650#0"/>
    <trip id="motorcycle11" type="motorcycle_motorcycle" depart="13.72" departLane="best" from="-389274955#3" to="-453811684"/>
    <trip id="truck5" type="truck_truck" depart="15.59" departLane="best" departSpeed="max" from="48726959#0" to="1121959023"/>
    <trip id="veh10" type="veh_passenger" depart="15.59" departLane="best" departSpeed="max" from="51911937" to="196287359#8"/>
    <trip id="motorcycle13" type="motorcycle_motorcycle" depart="16.21" departLane="best" from="-390001790#2" to="-389274952#0"/>
    <trip id="veh11" type="veh_passenger" depart="17.15" departLane="best" departSpeed="max" from="51911937" to="309708096#2"/>
    <trip id="bus6" type="bus_bus" depart="18.48" departLane="best" departSpeed="max" from="48726959#0" to="-557373219"/>
    <trip id="motorcycle15" type="motorcycle_motorcycle" depart="18.71" departLane="best" departSpeed="max" from="51911937" to="-249492802#0"/>
    <trip id="motorcycle16" type="motorcycle_motorcycle" depart="19.95" departLane="best" from="-50633773#3" to="-573824332"/>
    <person id="ped9" type="ped_pedestrian" depart="19.97">
        <walk edges="391277550 391277552 -51193425 -1117292685#0"/>
    </person>
    <trip id="veh13" type="veh_passenger" depart="20.27" departLane="best" from="390001791#3" to="196287359#8"/>
    <trip id="motorcycle17" type="motorcycle_motorcycle" depart="21.20" departLane="best" departSpeed="max" from="48726959#0" to="196287359#8"/>
    <trip id="bus7" type="bus_bus" depart="21.56" departLane="best" from="-935154517" to="196287359#8"/>
    <trip id="truck7" type="truck_truck" depart="21.83" departLane="best" from="-935154517" to="196287359#8"/>
    <trip id="veh14" type="veh_passenger" depart="21.83" departLane="best" departSpeed="max" from="51911937" to="196287359#8"/>
    <person id="ped10" type="ped_pedestrian" depart="22.19">
        <walk edges="391277549 391277548#2 391277035#0 391277040"/>
    </person>
    <trip id="veh15" type="veh_passenger" depart="23.38" departLane="best" departSpeed="max" from="51911937" to="196287359#8"/>
    <trip id="bus8" type="bus_bus" depart="24.64" departLane="best" from="50002945#2" to="196287359#8"/>
    <trip id="motorcycle20" type="motorcycle_motorcycle" depart="24.94" departLane="best" departSpeed="max" from="51911937" to="-232726953"/>
    <trip id="veh16" type="veh_passenger" depart="24.94" departLane="best" departSpeed="max" from="51193425" to="-313240782"/>
    <trip id="motorcycle21" type="motorcycle_motorcycle" depart="26.19" departLane="best" from="199430413" to="1121959023"/>
    <trip id="veh17" type="veh_passenger" depart="26.50" departLane="best" from="200540875" to="1121959023"/>
    <trip id="motorcycle22" type="motorcycle_motorcycle" depart="27.44" departLane="best" from="-389274955#0" to="-1034973641"/>
    <trip id="bus9" type="bus_bus" depart="27.72" departLane="best" from="-1034973642" to="-352006249"/>
    <trip id="veh18" type="veh_passenger" depart="28.06" departLane="best" from="-389274955#5" to="1117292687#0"/>
    <trip id="motorcycle23" type="motorcycle_motorcycle" depart="28.69" departLane="best" from="390001791#2" to="1121959023"/>
    <person id="ped13" type="ped_pedestrian" depart="28.85">
        <walk edges="-1117292685#6 1102629652 -385397101#1 -385397101#2 -1117292687#0"/>
    </person>
    <trip id="veh19" type="veh_passenger" depart="29.62" departLane="best" from="-390001790#0" to="1117292685#3"/>
    <trip id="motorcycle24" type="motorcycle_motorcycle" depart="29.93" departLane="best" departSpeed="max" from="51193425" to="1121959023"/>
    <person id="ped14" type="ped_pedestrian" depart="31.07">
        <walk edges="391277552 391277550 391277549 391277548#2 391277035#0"/>
    </person>
    <trip id="motorcycle25" type="motorcycle_motorcycle" depart="31.18" departLane="best" departSpeed="max" from="48726959#0" to="589250939"/>
    <trip id="truck10" type="truck_truck" depart="31.18" departLane="best" departSpeed="max" from="51193425" to="-385957470#0"/>
    <trip id="veh21" type="veh_passenger" depart="32.74" departLane="best" departSpeed="max" from="51193425" to="196287359#8"/>
    <person id="ped15" type="ped_pedestrian" depart="33.29">
        <walk edges="391277549 391277548#2 391277035#0 391277040 391277042 391277043"/>
    </person>
    <trip id="motorcycle27" type="motorcycle_motorcycle" depart="33.67" departLane="best" departSpeed="max" from="51193425" to="196287359#8"/>
    <trip id="bus11" type="bus_bus" depart="33.88" departLane="best" departSpeed="max" from="48726959#0" to="389274955#3"/>
    <trip id="truck11" type="truck_truck" depart="34.30" departLane="best" from="-935154517" to="309708096#6"/>
    <trip id="veh22" type="veh_passenger" depart="34.30" departLane="best" from="1117292685#6" to="309708096#2"/>
    <trip id="motorcycle28" type="motorcycle_motorcycle" depart="34.92" departLane="best" from="-1112257651" to="-249492802#0"/>
    <trip id="veh23" type="veh_passenger" depart="35.86" departLane="best" from="-679820075#1" to="196287359#8"/>
    <trip id="motorcycle29" type="motorcycle_motorcycle" depart="36.17" departLane="best" from="895778006" to="1121959023"/>
    <trip id="motorcycle30" type="motorcycle_motorcycle" depart="37.42" departLane="best" from="-679820075#1" to="196287359#8"/>
    <trip id="truck12" type="truck_truck" depart="37.42" departLane="best" from="-1307737536" to="200540875"/>
    <trip id="veh24" type="veh_passenger" depart="37.42" departLane="best" departSpeed="max" from="51193425" to="196287359#8"/>
    <trip id="motorcycle31" type="motorcycle_motorcycle" depart="38.66" departLane="best" departSpeed="max" from="51193425" to="196287359#8"/>
    <trip id="veh25" type="veh_passenger" depart="38.97" departLane="best" departSpeed="max" from="51911937" to="343359263#5"/>
    <person id="ped18" type="ped_pedestrian" depart="39.94">
        <walk edges="391277551 391277549 391277548#2 391277035#1 391277037#1 391277037#0 391277036"/>
    </person>
    <trip id="truck13" type="truck_truck" depart="40.53" departLane="best" from="552411650#0" to="-453811684"/>
    <trip id="veh26" type="veh_passenger" depart="40.53" departLane="best" from="-200569685" to="232605635"/>
    <trip id="motorcycle33" type="motorcycle_motorcycle" depart="41.16" departLane="best" from="199430413" to="-199430413"/>
    <trip id="veh27" type="veh_passenger" depart="42.09" departLane="best" from="385397101#1" to="1121959023"/>
    <trip id="motorcycle34" type="motorcycle_motorcycle" depart="42.40" departLane="best" from="385957470#0" to="1121959023"/>
    <trip id="truck14" type="truck_truck" depart="43.65" departLane="best" from="53788201" to="50633773#1"/>
    <trip id="veh28" type="veh_passenger" depart="43.65" departLane="best" from="196287359#2" to="-50633773#0"/>
    <person id="ped20" type="ped_pedestrian" depart="44.38">
        <walk edges="391277041 391277040 391277035#0 391277548#2 391277549 391277550 391277552 -51193425 -1117292685#0 -1117292685#1 -1117292685#2 -1117292685#3"/>
    </person>
    <trip id="veh29" type="veh_passenger" depart="45.21" departLane="best" departSpeed="max" from="51911937" to="1121959023"/>
    <trip id="motorcycle37" type="motorcycle_motorcycle" depart="46.15" departLane="best" departSpeed="max" from="51193425" to="1121959023"/>
    <trip id="bus15" type="bus_bus" depart="46.20" departLane="best" from="311545831" to="48731368#1"/>
    <trip id="truck15" type="truck_truck" depart="46.77" departLane="best" from="50633773#0" to="-385957470#3"/>
    <trip id="motorcycle39" type="motorcycle_motorcycle" depart="48.64" departLane="best" from="309708096#7" to="1117292685#3"/>
    <trip id="bus16" type="bus_bus" depart="49.28" departLane="best" from="-390001790#2" to="-391084173"/>
    <trip id="motorcycle40" type="motorcycle_motorcycle" depart="49.89" departLane="best" departSpeed="max" from="51193425" to="1117292689#0"/>
    <trip id="truck16" type="truck_truck" depart="49.89" departLane="best" from="53788201" to="196287359#8"/>
    <trip id="veh32" type="veh_passenger" depart="49.89" departLane="best" departSpeed="max" from="51193425" to="-390001791#2"/>
    <person id="ped23" type="ped_pedestrian" depart="51.04">
        <walk edges="-1117292687#0 -385397101#2"/>
    </person>
    <trip id="veh33" type="veh_passenger" depart="51.45" departLane="best" departSpeed="max" from="48726959#0" to="1117292685#5"/>
    <trip id="bus17" type="bus_bus" depart="52.36" departLane="best" from="-50633773#3" to="1034973641"/>
    <trip id="motorcycle42" type="motorcycle_motorcycle" depart="52.38" departLane="best" departSpeed="max" from="48726959#0" to="747178376"/>
    <trip id="truck17" type="truck_truck" depart="53.00" departLane="best" departSpeed="max" from="51911937" to="50633773#3"/>
    <trip id="veh34" type="veh_passenger" depart="53.00" departLane="best" from="-941526159" to="-196287358"/>
    <person id="ped24" type="ped_pedestrian" depart="53.26">
        <walk edges="391277037#0 391277037#1 391277035#1 391277035#0 391277040 391277041 391277044 -455284467"/>
    </person>
    <trip id="motorcycle43" type="motorcycle_motorcycle" depart="53.63" departLane="best" from="-935154517" to="196287359#8"/>
    <trip id="veh35" type="veh_passenger" depart="54.56" departLane="best" from="390001791#2" to="346332538"/>
    <trip id="motorcycle44" type="motorcycle_motorcycle" depart="54.88" departLane="best" from="-390001790#0" to="-232726953"/>
    <trip id="bus18" type="bus_bus" depart="55.44" departLane="best" from="573824330" to="50002945#2"/>
    <trip id="truck18" type="truck_truck" depart="56.12" departLane="best" from="-200569685" to="232605634"/>
    <trip id="veh36" type="veh_passenger" depart="56.12" departLane="best" from="-50633773#3" to="196287359#8"/>
    <trip id="motorcycle46" type="motorcycle_motorcycle" depart="57.37" departLane="best" departSpeed="max" from="51911937" to="1121959023"/>
    <trip id="veh37" type="veh_passenger" depart="57.68" departLane="best" departSpeed="max" from="51911937" to="1121959023"/>
    <person id="ped26" type="ped_pedestrian" depart="57.70">
        <walk edges="-385397101#1 1102629652 -1117292685#5 -1117292685#4 -1117292685#3 -1117292685#2 -1117292685#1 -1117292685#0 -51193425 391277552 391277550 391277549 391277548#2 391277548#1 391277548#0 391279060"/>
    </person>
    <trip id="motorcycle47" type="motorcycle_motorcycle" depart="58.62" departLane="best" from="385957327" to="1121959023"/>
    <trip id="truck19" type="truck_truck" depart="59.24" departLane="best" from="573824329" to="935154517"/>
    <trip id="veh38" type="veh_passenger" depart="59.24" departLane="best" from="-389274952#3" to="1121959023"/>
    <trip id="motorcycle48" type="motorcycle_motorcycle" depart="59.86" departLane="best" from="895778006" to="196287359#8"/>
    <person id="ped27" type="ped_pedestrian" depart="59.91">
        <walk edges="391277037#1 391277035#1"/>
    </person>
    <trip id="veh39" type="veh_passenger" depart="60.80" departLane="best" from="-935154517" to="196287359#5"/>
    <trip id="motorcycle49" type="motorcycle_motorcycle" depart="61.11" departLane="best" from="557373219" to="389274955#5"/>
    <trip id="bus20" type="bus_bus" depart="61.60" departLane="best" from="-747178376" to="-391084169"/>
    <trip id="truck20" type="truck_truck" depart="62.36" departLane="best" from="-389274955#6" to="679820074"/>
    <trip id="veh40" type="veh_passenger" depart="62.36" departLane="best" from="552411650#0" to="389274953#1"/>
    <trip id="motorcycle51" type="motorcycle_motorcycle" depart="63.61" departLane="best" departSpeed="max" from="51911937" to="196287359#8"/>
    <trip id="veh41" type="veh_passenger" depart="63.92" departLane="best" from="-13858379#1" to="249492802#1"/>
    <trip id="bus21" type="bus_bus" depart="64.68" departLane="best" from="390001791#2" to="200569685"/>
    <trip id="truck21" type="truck_truck" depart="65.48" departLane="best" from="232726953" to="200538746"/>
    <trip id="veh42" type="veh_passenger" depart="65.48" departLane="best" departSpeed="max" from="51193425" to="196287359#8"/>
    <trip id="motorcycle53" type="motorcycle_motorcycle" depart="66.10" departLane="best" from="453811684" to="1121959023"/>
    <person id="ped30" type="ped_pedestrian" depart="66.57">
        <walk edges="391279064 391279062 391279060 391277548#0 391277548#1 391277035#1 391277037#1 391277037#0"/>
    </person>
    <trip id="motorcycle54" type="motorcycle_motorcycle" depart="67.35" departLane="best" departSpeed="max" from="48726959#0" to="-552411650#0"/>
    <trip id="bus22" type="bus_bus" depart="67.76" departLane="best" departSpeed="max" from="48726959#0" to="747178376"/>
    <trip id="truck22" type="truck_truck" depart="68.59" departLane="best" from="-390001790#0" to="343359263#0"/>
    <trip id="veh44" type="veh_passenger" depart="68.59" departLane="best" departSpeed="max" from="51911937" to="1121959023"/>
    <person id="ped31" type="ped_pedestrian" depart="68.79">
        <walk edges="1102629652 -1117292685#5 -1117292685#4 -1117292685#3 -1117292685#2 -1117292685#1 -1117292685#0 -51193425 391277552 391277550 391277549 391277548#2 391277035#1 391277037#1 391277038 391277039"/>
    </person>
    <trip id="veh45" type="veh_passenger" depart="70.15" departLane="best" departSpeed="max" from="48726959#0" to="747178376"/>
    <trip id="bus23" type="bus_bus" depart="70.84" departLane="best" from="-389274952#0" to="196287359#8"/>
    <person id="ped32" type="ped_pedestrian" depart="71.01">
        <walk edges="391277552 391277550 391277549 391277548#2 391277548#1"/>
    </person>
    <trip id="truck23" type="truck_truck" depart="71.71" departLane="best" from="552411650#1" to="352006253#1"/>
    <trip id="motorcycle58" type="motorcycle_motorcycle" depart="72.34" departLane="best" from="352006252#1" to="196287359#8"/>
    <trip id="motorcycle59" type="motorcycle_motorcycle" depart="73.58" departLane="best" departSpeed="max" from="51193425" to="-391084173"/>
    <trip id="bus24" type="bus_bus" depart="73.92" departLane="best" departSpeed="max" from="48726959#0" to="-557373219"/>
    <trip id="motorcycle60" type="motorcycle_motorcycle" depart="74.83" departLane="best" departSpeed="max" from="51911937" to="196287359#8"/>
    <trip id="truck24" type="truck_truck" depart="74.83" departLane="best" from="385397101#0" to="-552411650#0"/>
    <trip id="veh48" type="veh_passenger" depart="74.83" departLane="best" departSpeed="max" from="51193425" to="-53788201"/>
    <trip id="motorcycle61" type="motorcycle_motorcycle" depart="76.08" departLane="best" departSpeed="max" from="51911937" to="196287359#8"/>
    <trip id="veh49" type="veh_passenger" depart="76.39" departLane="best" departSpeed="max" from="51911937" to="196287359#8"/>
    <trip id="bus25" type="bus_bus" depart="77.00" departLane="best" from="385957470#0" to="50002945#2"/>
    <trip id="motorcycle62" type="motorcycle_motorcycle" depart="77.32" departLane="best" from="-1034973641" to="1121959023"/>
    <trip id="truck25" type="truck_truck" depart="77.95" departLane="best" from="487442008" to="-352006251"/>
    <trip id="veh50" type="veh_passenger" depart="77.95" departLane="best" departSpeed="max" from="51911937" to="196287359#6"/>
    <trip id="motorcycle63" type="motorcycle_motorcycle" depart="78.57" departLane="best" from="187888353" to="-503485091"/>
    <trip id="veh51" type="veh_passenger" depart="79.51" departLane="best" from="-1034973641" to="1121959023"/>
    <trip id="bus26" type="bus_bus" depart="80.08" departLane="best" departSpeed="max" from="48726959#0" to="-557373219"/>
    <trip id="veh52" type="veh_passenger" depart="81.07" departLane="best" from="-200538746" to="48731367"/>
    <trip id="motorcycle66" type="motorcycle_motorcycle" depart="82.31" departLane="best" departSpeed="max" from="528562512" to="-51914527#1"/>
    <trip id="bus27" type="bus_bus" depart="83.16" departLane="best" from="187888351#1" to="48731367"/>
    <trip id="motorcycle67" type="motorcycle_motorcycle" depart="83.56" departLane="best" from="-389274955#4" to="196287354"/>
    <trip id="veh54" type="veh_passenger" depart="84.18" departLane="best" departSpeed="max" from="51911937" to="50633773#3"/>
    <trip id="motorcycle68" type="motorcycle_motorcycle" depart="84.81" departLane="best" from="385957470#3" to="309708097#1"/>
    <trip id="veh55" type="veh_passenger" depart="85.74" departLane="best" from="-390001790#2" to="1121959023"/>
    <trip id="motorcycle69" type="motorcycle_motorcycle" depart="86.06" departLane="best" departSpeed="max" from="51911937" to="390001790#2"/>
    <person id="ped39" type="ped_pedestrian" depart="86.54">
        <walk edges="-385397101#1 -385397101#0"/>
    </person>
    <trip id="motorcycle70" type="motorcycle_motorcycle" depart="87.30" departLane="best" departSpeed="max" from="48726959#0" to="196287359#8"/>
    <trip id="truck28" type="truck_truck" depart="87.30" departLane="best" departSpeed="max" from="48726959#0" to="-552411650#1"/>
    <trip id="veh56" type="veh_passenger" depart="87.30" departLane="best" departSpeed="max" from="51911937" to="-391084173"/>
    <trip id="motorcycle71" type="motorcycle_motorcycle" depart="88.55" departLane="best" from="309708096#7" to="390001790#4"/>
    <trip id="motorcycle72" type="motorcycle_motorcycle" depart="89.80" departLane="best" departSpeed="max" from="48726959#0" to="679820074"/>
    <trip id="truck29" type="truck_truck" depart="90.42" departLane="best" from="-389274952#5" to="196287354"/>
    <trip id="veh58" type="veh_passenger" depart="90.42" departLane="best" departSpeed="max" from="48726959#0" to="1117292685#3"/>
    <trip id="motorcycle73" type="motorcycle_motorcycle" depart="91.04" departLane="best" from="50633780" to="-249492802#0"/>
    <trip id="veh59" type="veh_passenger" depart="91.98" departLane="best" from="50633780" to="309708096#2"/>
    <trip id="motorcycle74" type="motorcycle_motorcycle" depart="92.29" departLane="best" from="-18598863" to="1121959023"/>
    <trip id="motorcycle75" type="motorcycle_motorcycle" depart="93.54" departLane="best" from="895778006" to="196287359#8"/>
    <trip id="truck30" type="truck_truck" depart="93.54" departLane="best" departSpeed="max" from="48726959#0" to="-552411650#0"/>
    <trip id="veh60" type="veh_passenger" depart="93.54" departLane="best" from="187888351#1" to="1121959023"/>
    <trip id="motorcycle76" type="motorcycle_motorcycle" depart="94.79" departLane="best" departSpeed="max" from="48726959#0" to="196287359#8"/>
    <trip id="veh61" type="veh_passenger" depart="95.10" departLane="best" from="895778006" to="196287359#8"/>
    <trip id="bus31" type="bus_bus" depart="95.48" departLane="best" from="-18598863" to="-391084168"/>
    <trip id="truck31" type="truck_truck" depart="96.66" departLane="best" departSpeed="max" from="48726959#0" to="-552411650#0"/>
    <trip id="veh62" type="veh_passenger" depart="96.66" departLane="best" from="-389274952#1" to="196287359#8"/>
    <trip id="motorcycle78" type="motorcycle_motorcycle" depart="97.28" departLane="best" from="-389274955#2" to="196287359#8"/>
    <person id="ped44" type="ped_pedestrian" depart="97.64">
        <walk edges="-1117292685#6 -1117292685#5 -1117292685#4 -1117292685#3"/>
    </person>
    <trip id="veh63" type="veh_passenger" depart="98.22" departLane="best" from="-232605634" to="1117292685#5"/>
    <trip id="motorcycle79" type="motorcycle_motorcycle" depart="98.53" departLane="best" from="-200538746" to="747178376"/>
    <trip id="motorcycle80" type="motorcycle_motorcycle" depart="99.77" departLane="best" from="-389274952#0" to="196287359#8"/>
    <trip id="truck32" type="truck_truck" depart="99.77" departLane="best" departSpeed="max" from="51193425" to="-487442008"/>
    <trip id="veh64" type="veh_passenger" depart="99.77" departLane="best" from="-389274955#1" to="196287359#8"/>
    <person id="ped45" type="ped_pedestrian" depart="99.86">
        <walk edges="-1117292687#1 -1117292687#0 -385397101#2 -385397101#1 1102629652 -1117292685#5 -1117292685#4 -1117292685#3 -1117292685#2 -1117292685#1 -1117292685#0 -51193425 391277552 391277550 391277549 391277548#2 391277035#1 391277037#1 391277037#0 391277036"/>
    </person>
    <trip id="veh65" type="veh_passenger" depart="101.33" departLane="best" from="24791500" to="196287359#8"/>
    <trip id="bus33" type="bus_bus" depart="101.64" departLane="best" from="573824332" to="-390001791#0"/>
    <trip id="truck33" type="truck_truck" depart="102.89" departLane="best" departSpeed="max" from="51911937" to="-552411650#1"/>
    <trip id="veh66" type="veh_passenger" depart="102.89" departLane="best" from="196287359#3" to="48731367"/>
    <trip id="motorcycle83" type="motorcycle_motorcycle" depart="103.52" departLane="best" from="-232605635" to="196287359#8"/>
    <trip id="veh67" type="veh_passenger" depart="104.45" departLane="best" departSpeed="max" from="48726959#0" to="346332673"/>
    <trip id="motorcycle84" type="motorcycle_motorcycle" depart="104.76" departLane="best" from="196287359#0" to="390001790#3"/>
    <trip id="veh68" type="veh_passenger" depart="106.01" departLane="best" departSpeed="max" from="51911937" to="1034973641"/>
    <trip id="motorcycle86" type="motorcycle_motorcycle" depart="107.26" departLane="best" departSpeed="max" from="48726959#0" to="346332538"/>
    <trip id="bus35" type="bus_bus" depart="107.80" departLane="best" from="-390001790#2" to="346332538"/>
    <trip id="motorcycle87" type="motorcycle_motorcycle" depart="108.50" departLane="best" departSpeed="max" from="51911937" to="-557373218"/>
    <person id="ped49" type="ped_pedestrian" depart="108.73">
        <walk edges="391279063 391279059 391279057 391279055 -391279054 391277548#1 391277548#2 391277549 391277551 391277553"/>
    </person>
    <trip id="truck35" type="truck_truck" depart="109.13" departLane="best" departSpeed="max" from="48726959#0" to="1121959023"/>
    <trip id="veh70" type="veh_passenger" depart="109.13" departLane="best" departSpeed="max" from="48726959#0" to="1121959023"/>
    <trip id="motorcycle88" type="motorcycle_motorcycle" depart="109.75" departLane="best" from="-390001790#4" to="1121959023"/>
    <trip id="veh71" type="veh_passenger" depart="110.69" departLane="best" departSpeed="max" from="51911937" to="196287359#8"/>
    <trip id="bus36" type="bus_bus" depart="110.88" departLane="best" from="48726959#6" to="13858379#1"/>
    <person id="ped50" type="ped_pedestrian" depart="110.95">
        <walk edges="-1117292685#0 -51193425 391277552 391277550 391277549 391277548#2 391277035#0 391277040 391277042"/>
    </person>
    <trip id="motorcycle89" type="motorcycle_motorcycle" depart="111.00" departLane="best" departSpeed="max" from="48726959#0" to="1307737536"/>
    <trip id="motorcycle90" type="motorcycle_motorcycle" depart="112.25" departLane="best" departSpeed="max" from="51911937" to="196287359#8"/>
    <trip id="truck36" type="truck_truck" depart="112.25" departLane="best" from="573824331" to="-552411650#1"/>
    <trip id="veh72" type="veh_passenger" depart="112.25" departLane="best" from="573824332" to="389274955#3"/>
    <trip id="motorcycle91" type="motorcycle_motorcycle" depart="113.49" departLane="best" from="-589250939" to="389274952#0"/>
    <trip id="veh73" type="veh_passenger" depart="113.80" departLane="best" departSpeed="max" from="48726959#0" to="1121959023"/>
    <trip id="bus37" type="bus_bus" depart="113.96" departLane="best" from="-50633773#2" to="13858379#1"/>
    <trip id="motorcycle92" type="motorcycle_motorcycle" depart="114.74" departLane="best" departSpeed="max" from="48726959#0" to="1121959023"/>
    <trip id="truck37" type="truck_truck" depart="115.36" departLane="best" from="390001791#0" to="196287359#7"/>
    <trip id="veh74" type="veh_passenger" depart="115.36" departLane="best" departSpeed="max" from="51911937" to="1117292689#2"/>
    <person id="ped52" type="ped_pedestrian" depart="115.39">
        <walk edges="-385397101#1 1102629652 -1117292685#5 -1117292685#4 -1117292685#3 -1117292685#2 -1117292685#1 -1117292685#0 -51193425 391277552 391277550 391277549 391277548#2 391277035#1 391277037#1 391277037#0"/>
    </person>
    <trip id="veh75" type="veh_passenger" depart="116.92" departLane="best" from="-1244830639" to="1121959023"/>
    <trip id="motorcycle94" type="motorcycle_motorcycle" depart="117.23" departLane="best" from="1117292689#0" to="1121959023"/>
    <trip id="motorcycle95" type="motorcycle_motorcycle" depart="118.48" departLane="best" departSpeed="max" from="48726959#0" to="1121959023"/>
    <trip id="truck38" type="truck_truck" depart="118.48" departLane="best" from="-50633773#3" to="-313240414"/>
    <trip id="veh76" type="veh_passenger" depart="118.48" departLane="best" departSpeed="max" from="48726959#0" to="1121959023"/>
    <trip id="motorcycle96" type="motorcycle_motorcycle" depart="119.73" departLane="best" from="-249492802#1" to="50002945#1"/>
    <trip id="bus39" type="bus_bus" depart="120.12" departLane="best" from="48726959#6" to="1034973641"/>
    <trip id="motorcycle97" type="motorcycle_motorcycle" depart="120.98" departLane="best" departSpeed="max" from="48726959#0" to="389274955#5"/>
    <trip id="truck39" type="truck_truck" depart="121.60" departLane="best" departSpeed="max" from="48726959#0" to="1034973642"/>
    <trip id="veh78" type="veh_passenger" depart="121.60" departLane="best" departSpeed="max" from="48726959#0" to="389274953#2"/>
    <person id="ped55" type="ped_pedestrian" depart="122.05">
        <walk edges="391279056 391279055 -391279054 391277548#1 391277548#2 391277549 391277550 391277552 -51193425 -1117292685#0 -1117292685#1 -1117292685#2 -1117292685#3 -1117292685#4 -1117292685#5 1102629652 -385397101#1"/>
    </person>
    <trip id="motorcycle98" type="motorcycle_motorcycle" depart="122.22" departLane="best" departSpeed="max" from="51193425" to="-249492801"/>