<?xml version="1.0" encoding="UTF-8"?>

<!-- generated on 2024-12-20 13:48:52 by Eclipse SUMO netedit Version 1.20.0
<configuration xmlns:xsi="http://www.w3.org/2001/XMLSchema-instance" xsi:noNamespaceSchemaLocation="http://sumo.dlr.de/xsd/neteditConfiguration.xsd">

    <input>
        <sumocfg-file value="/Users/chamodkanishka/2024-12-20-13-42-31/osm.sumocfg"/>
        <additional-files value="/Users/chamodkanishka/2024-12-20-13-42-31/osm.poly.xml.gz"/>
        <route-files value="/Users/chamodkanishka/2024-12-20-13-42-31/osm.bus.trips.xml,/Users/chamodkanishka/2024-12-20-13-42-31/osm.motorcycle.trips.xml,/Users/chamodkanishka/2024-12-20-13-42-31/osm.passenger.trips.xml,/Users/chamodkanishka/2024-12-20-13-42-31/osm.pedestrian.rou.xml,/Users/chamodkanishka/2024-12-20-13-42-31/osm.truck.trips.xml"/>
        <sumo-net-file value="/Users/chamodkanishka/Library/CloudStorage/OneDrive-kcg.ac.jp/MP2/MP2/Maps/test/test.net.xml"/>
    </input>

    <output>
        <output-file value="/Users/chamodkanishka/Library/CloudStorage/OneDrive-kcg.ac.jp/MP2/MP2/Maps/test/test.net.xml"/>
        <output.street-names value="true"/>
    </output>

    <processing>
        <geometry.min-radius.fix.railways value="false"/>
        <geometry.max-grade.fix value="false"/>
        <offset.disable-normalization value="true"/>
        <lefthand value="1"/>
    </processing>

    <junctions>
        <no-internal-links value="false"/>
        <no-turnarounds value="true"/>
        <junctions.corner-detail value="5"/>
        <junctions.limit-turn-speed value="5.50"/>
        <rectangular-lane-cut value="0"/>
    </junctions>

    <pedestrian>
        <walkingareas value="1"/>
    </pedestrian>

    <netedit>
        <ignore.routeelements value="false"/>
    </netedit>

</configuration>
-->

<net version="1.20" junctionCornerDetail="5" walkingareas="true" lefthand="true" limitTurnSpeed="5.50" xmlns:xsi="http://www.w3.org/2001/XMLSchema-instance" xsi:noNamespaceSchemaLocation="http://sumo.dlr.de/xsd/net_file.xsd">

    <location netOffset="-375516.89,-763931.07" convBoundary="0.00,0.00,900.98,683.07" origBoundary="79.873237,6.909864,79.881399,6.916050" projParameter="+proj=utm +zone=44 +ellps=WGS84 +datum=WGS84 +units=m +no_defs"/>

    <type id="highway.footway" priority="1" numLanes="1" speed="2.78" allow="pedestrian" oneway="1" width="2.00"/>
    <type id="highway.living_street" priority="2" numLanes="1" speed="2.78" disallow="tram rail_urban rail rail_electric rail_fast ship container cable_car subway aircraft wheelchair scooter drone" oneway="0"/>
    <type id="highway.path" priority="1" numLanes="1" speed="5.56" allow="pedestrian bicycle" oneway="0" width="2.00"/>
    <type id="highway.primary" priority="12" numLanes="2" speed="13.89" disallow="pedestrian tram rail_urban rail rail_electric rail_fast ship container cable_car subway aircraft wheelchair scooter drone" oneway="0" sidewalkWidth="3.00"/>
    <type id="highway.residential" priority="3" numLanes="1" speed="13.89" disallow="pedestrian tram rail_urban rail rail_electric rail_fast ship container cable_car subway aircraft wheelchair scooter drone" oneway="0" sidewalkWidth="2.00"/>
    <type id="highway.secondary" priority="11" numLanes="1" speed="13.89" disallow="pedestrian tram rail_urban rail rail_electric rail_fast ship container cable_car subway aircraft wheelchair scooter drone" oneway="0" sidewalkWidth="3.00"/>
    <type id="highway.service" priority="1" numLanes="1" speed="5.56" allow="pedestrian delivery bicycle" oneway="0"/>
    <type id="highway.steps" priority="1" numLanes="1" speed="1.39" allow="pedestrian" oneway="1" width="2.00"/>
    <type id="highway.tertiary" priority="10" numLanes="1" speed="13.89" disallow="pedestrian tram rail_urban rail rail_electric rail_fast ship container cable_car subway aircraft wheelchair scooter drone" oneway="0" sidewalkWidth="3.00"/>
    <type id="highway.trunk" priority="13" numLanes="2" speed="13.89" disallow="pedestrian bicycle tram rail_urban rail rail_electric rail_fast ship container cable_car subway aircraft wheelchair scooter drone" oneway="0"/>
    <type id="highway.trunk_link" priority="8" numLanes="1" speed="13.89" disallow="pedestrian bicycle tram rail_urban rail rail_electric rail_fast ship container cable_car subway aircraft wheelchair scooter drone" oneway="0"/>

    <edge id=":10125040155_0" function="internal">
        <lane id=":10125040155_0_0" index="0" disallow="pedestrian tram rail_urban rail rail_electric rail_fast ship container cable_car subway aircraft wheelchair scooter drone" speed="3.65" length="4.67" shape="368.70,0.61 368.42,-0.81 367.83,-1.48 366.94,-1.41 365.74,-0.61"/>
    </edge>
    <edge id=":10125040155_w0" function="walkingarea">
        <lane id=":10125040155_w0_0" index="0" allow="pedestrian" speed="2.78" length="9.40" width="3.00" shape="364.26,-1.22 361.49,-2.36 372.95,2.36 370.18,1.22"/>
    </edge>
    <edge id=":10125040157_0" function="internal">
        <lane id=":10125040157_0_0" index="0" disallow="pedestrian tram rail_urban rail rail_electric rail_fast ship container cable_car subway aircraft wheelchair scooter drone" speed="3.65" length="4.67" shape="3.66,625.73 2.66,626.77 2.45,627.64 3.02,628.33 4.36,628.85"/>
    </edge>
    <edge id=":10175609345_0" function="internal">
        <lane id=":10175609345_0_0" index="0" disallow="pedestrian tram rail_urban rail rail_electric rail_fast ship container cable_car subway aircraft wheelchair scooter drone" speed="3.65" length="4.67" shape="416.62,499.86 415.74,498.72 414.91,498.37 414.14,498.83 413.42,500.08"/>
    </edge>
    <edge id=":10175609346_0" function="internal">
        <lane id=":10175609346_0_0" index="0" disallow="pedestrian tram rail_urban rail rail_electric rail_fast ship container cable_car subway aircraft wheelchair scooter drone" speed="6.23" length="9.05" shape="425.06,539.21 422.53,539.37 420.67,538.65 419.48,537.05 418.95,534.58"/>
    </edge>
    <edge id=":10175609346_1" function="internal">
        <lane id=":10175609346_1_0" index="0" disallow="pedestrian tram rail_urban rail rail_electric rail_fast ship container cable_car subway aircraft wheelchair scooter drone" speed="13.89" length="14.46" shape="425.06,539.21 410.90,542.17"/>
    </edge>
    <edge id=":10175609346_2" function="internal">
        <lane id=":10175609346_2_0" index="0" allow="bus bicycle" speed="3.65" length="1.44" shape="425.06,539.21 424.05,540.24"/>
    </edge>
    <edge id=":10175609346_9" function="internal">
        <lane id=":10175609346_9_0" index="0" allow="bus bicycle" speed="3.65" length="3.23" shape="424.05,540.24 423.82,541.10 424.38,541.80 425.72,542.34"/>
    </edge>
    <edge id=":10175609346_3" function="internal">
        <lane id=":10175609346_3_0" index="0" allow="bus bicycle" speed="13.89" length="14.46" shape="411.56,545.31 425.72,542.34"/>
    </edge>
    <edge id=":10175609346_4" function="internal">
        <lane id=":10175609346_4_0" index="0" allow="bus bicycle" speed="8.50" length="3.86" shape="411.56,545.31 415.02,544.01 415.14,543.90"/>
    </edge>
    <edge id=":10175609346_5" function="internal">
        <lane id=":10175609346_5_0" index="0" allow="bus bicycle" speed="3.65" length="1.44" shape="411.56,545.31 412.57,544.28"/>
    </edge>
    <edge id=":10175609346_10" function="internal">
        <lane id=":10175609346_10_0" index="0" allow="bus bicycle" speed="8.50" length="10.57" shape="415.14,543.90 417.41,541.79 418.72,538.64 418.95,534.58"/>
    </edge>
    <edge id=":10175609346_11" function="internal">
        <lane id=":10175609346_11_0" index="0" allow="bus bicycle" speed="3.65" length="3.23" shape="412.57,544.28 412.80,543.41 412.24,542.71 410.90,542.17"/>
    </edge>
    <edge id=":10175609346_6" function="internal">
        <lane id=":10175609346_6_0" index="0" disallow="pedestrian tram rail_urban rail rail_electric rail_fast ship container cable_car subway aircraft wheelchair scooter drone" speed="7.10" length="9.78" shape="415.76,534.79 415.61,537.61 414.76,539.78 413.19,541.30 410.90,542.17"/>
    </edge>
    <edge id=":10175609346_7" function="internal">
        <lane id=":10175609346_7_0" index="0" allow="bus bicycle" speed="7.77" length="14.75" shape="415.76,534.79 416.62,538.83 418.57,541.43 421.60,542.60 425.72,542.34"/>
    </edge>
    <edge id=":10175609346_8" function="internal">
        <lane id=":10175609346_8_0" index="0" disallow="pedestrian tram rail_urban rail rail_electric rail_fast ship container cable_car subway aircraft wheelchair scooter drone" speed="3.65" length="4.67" shape="415.76,534.79 416.64,535.94 417.46,536.28 418.23,535.83 418.95,534.58"/>
    </edge>
    <edge id=":10175609357_0" function="internal">
        <lane id=":10175609357_0_0" index="0" allow="pedestrian delivery bicycle" speed="3.65" length="4.67" shape="262.89,630.18 263.89,629.15 264.11,628.28 263.55,627.58 262.21,627.06"/>
    </edge>
    <edge id=":10175609358_0" function="internal">
        <lane id=":10175609358_0_0" index="0" allow="delivery bicycle" speed="5.02" length="5.02" shape="200.13,640.53 198.76,640.62 197.69,640.26 196.93,639.42 196.47,638.12"/>
    </edge>
    <edge id=":10175609358_1" function="internal">
        <lane id=":10175609358_1_0" index="0" allow="delivery bicycle" speed="6.91" length="10.17" shape="200.13,640.53 197.50,641.49 195.79,643.06 195.01,645.21 195.15,647.96"/>
    </edge>
    <edge id=":10175609358_2" function="internal">
        <lane id=":10175609358_2_0" index="0" allow="pedestrian delivery bicycle" speed="3.65" length="4.67" shape="200.13,640.53 199.13,641.56 198.91,642.43 199.47,643.13 200.81,643.65"/>
    </edge>
    <edge id=":10175609358_3" function="internal">
        <lane id=":10175609358_3_0" index="0" allow="delivery bicycle" speed="5.10" length="5.08" shape="198.29,647.34 198.22,645.98 198.62,644.91 199.49,644.14 200.81,643.65"/>
    </edge>
    <edge id=":10175609358_4" function="internal">
        <lane id=":10175609358_4_0" index="0" disallow="pedestrian tram rail_urban rail rail_electric rail_fast ship container cable_car subway aircraft wheelchair scooter drone" speed="13.89" length="9.40" shape="198.29,647.34 196.47,638.12"/>
    </edge>
    <edge id=":10175609358_5" function="internal">
        <lane id=":10175609358_5_0" index="0" disallow="pedestrian tram rail_urban rail rail_electric rail_fast ship container cable_car subway aircraft wheelchair scooter drone" speed="13.89" length="9.40" shape="193.33,638.74 195.15,647.96"/>
    </edge>
    <edge id=":10175609358_6" function="internal">
        <lane id=":10175609358_6_0" index="0" allow="delivery bicycle" speed="6.85" length="3.28" shape="193.33,638.74 194.26,641.40 194.57,641.74"/>
    </edge>
    <edge id=":10175609358_7" function="internal">
        <lane id=":10175609358_7_0" index="0" allow="delivery bicycle" speed="6.85" length="6.98" shape="194.57,641.74 195.82,643.10 198.00,643.85 200.81,643.65"/>
    </edge>
    <edge id=":10175609358_w0" function="walkingarea">
        <lane id=":10175609358_w0_0" index="0" allow="pedestrian" speed="2.78" length="3.20" width="3.20" shape="199.80,638.96 200.47,642.09 201.15,645.22"/>
    </edge>
    <edge id=":11021721328_0" function="internal">
        <lane id=":11021721328_0_0" index="0" allow="pedestrian delivery bicycle" speed="3.65" length="4.67" shape="41.62,225.46 42.70,226.42 43.57,226.61 44.25,226.02 44.72,224.66"/>
    </edge>
    <edge id=":11021721330_0" function="internal">
        <lane id=":11021721330_0_0" index="0" disallow="pedestrian tram rail_urban rail rail_electric rail_fast ship container cable_car subway aircraft wheelchair scooter drone" speed="16.67" length="9.51" shape="36.53,167.82 27.03,168.14"/>
    </edge>
    <edge id=":11021721330_1" function="internal">
        <lane id=":11021721330_1_0" index="0" allow="delivery bicycle" speed="7.47" length="3.35" shape="36.53,167.82 33.27,168.57"/>
    </edge>
    <edge id=":11021721330_7" function="internal">
        <lane id=":11021721330_7_0" index="0" allow="delivery bicycle" speed="7.47" length="10.55" shape="33.27,168.57 31.24,170.54 30.46,173.73 30.92,178.15"/>
    </edge>
    <edge id=":11021721330_2" function="internal">
        <lane id=":11021721330_2_0" index="0" allow="delivery bicycle" speed="5.86" length="8.10" shape="34.05,177.47 33.70,174.70 34.02,172.70 35.00,171.47 36.64,171.02"/>
    </edge>
    <edge id=":11021721330_3" function="internal">
        <lane id=":11021721330_3_0" index="0" allow="delivery bicycle" speed="8.11" length="12.60" shape="34.05,177.47 32.84,173.33 31.27,170.39 29.34,168.66 27.03,168.14"/>
    </edge>
    <edge id=":11021721330_4" function="internal">
        <lane id=":11021721330_4_0" index="0" allow="pedestrian delivery bicycle" speed="3.65" length="4.67" shape="34.05,177.47 33.02,176.47 32.15,176.25 31.45,176.81 30.92,178.15"/>
    </edge>
    <edge id=":11021721330_5" function="internal">
        <lane id=":11021721330_5_0" index="0" allow="delivery bicycle" speed="6.66" length="8.20" shape="27.14,171.34 28.24,171.74 29.24,173.00 30.13,175.14 30.92,178.15"/>
    </edge>
    <edge id=":11021721330_6" function="internal">
        <lane id=":11021721330_6_0" index="0" disallow="pedestrian tram rail_urban rail rail_electric rail_fast ship container cable_car subway aircraft wheelchair scooter drone" speed="16.67" length="9.50" shape="27.14,171.34 36.64,171.02"/>
    </edge>
    <edge id=":11021721330_w0" function="walkingarea">
        <lane id=":11021721330_w0_0" index="0" allow="pedestrian" speed="2.78" length="9.51" width="3.00" shape="26.98,166.54 26.88,163.55 36.38,163.23 36.48,166.22"/>
    </edge>
    <edge id=":11021721330_w1" function="walkingarea">
        <lane id=":11021721330_w1_0" index="0" allow="pedestrian" speed="2.78" length="6.13" width="3.20" shape="36.70,172.62 36.80,175.62 35.61,177.14 32.49,177.81 29.36,178.48 27.30,175.94 27.20,172.94"/>
    </edge>
    <edge id=":11021721333_0" function="internal">
        <lane id=":11021721333_0_0" index="0" allow="pedestrian delivery bicycle" speed="3.65" length="4.67" shape="21.97,273.65 20.98,272.60 20.12,272.34 19.40,272.87 18.81,274.19"/>
    </edge>
    <edge id=":11021721334_0" function="internal">
        <lane id=":11021721334_0_0" index="0" allow="delivery bicycle" speed="5.25" length="5.25" shape="31.23,310.37 29.89,310.30 28.85,309.77 28.11,308.78 27.68,307.34"/>
    </edge>
    <edge id=":11021721334_1" function="internal">
        <lane id=":11021721334_1_0" index="0" disallow="pedestrian tram rail_urban rail rail_electric rail_fast ship container cable_car subway aircraft wheelchair scooter drone" speed="13.89" length="9.41" shape="31.23,310.37 21.87,311.37"/>
    </edge>
    <edge id=":11021721334_2" function="internal">
        <lane id=":11021721334_2_0" index="0" disallow="pedestrian tram rail_urban rail rail_electric rail_fast ship container cable_car subway aircraft wheelchair scooter drone" speed="13.89" length="9.41" shape="22.21,314.55 31.57,313.55"/>
    </edge>
    <edge id=":11021721334_3" function="internal">
        <lane id=":11021721334_3_0" index="0" allow="delivery bicycle" speed="6.81" length="3.32" shape="22.21,314.55 25.02,313.84 25.35,313.58"/>
    </edge>
    <edge id=":11021721334_7" function="internal">
        <lane id=":11021721334_7_0" index="0" allow="delivery bicycle" speed="6.81" length="7.15" shape="25.35,313.58 26.86,312.40 27.75,310.23 27.68,307.34"/>
    </edge>
    <edge id=":11021721334_4" function="internal">
        <lane id=":11021721334_4_0" index="0" allow="delivery bicycle" speed="4.98" length="5.07" shape="24.52,307.87 24.56,309.28 24.13,310.33 23.23,311.02 21.87,311.37"/>
    </edge>
    <edge id=":11021721334_5" function="internal">
        <lane id=":11021721334_5_0" index="0" allow="delivery bicycle" speed="7.02" length="10.19" shape="24.52,307.87 25.37,310.60 26.82,312.45 28.89,313.44 31.57,313.55"/>
    </edge>
    <edge id=":11021721334_6" function="internal">
        <lane id=":11021721334_6_0" index="0" allow="pedestrian delivery bicycle" speed="3.65" length="4.67" shape="24.52,307.87 25.51,308.92 26.37,309.18 27.09,308.66 27.68,307.34"/>
    </edge>
    <edge id=":11021721334_w0" function="walkingarea">
        <lane id=":11021721334_w0_0" index="0" allow="pedestrian" speed="2.78" length="3.20" width="3.20" shape="22.95,308.14 26.10,307.61 29.26,307.07"/>
    </edge>
    <edge id=":11021721335_0" function="internal">
        <lane id=":11021721335_0_0" index="0" allow="pedestrian delivery bicycle" speed="3.65" length="4.67" shape="1.59,266.65 0.66,265.55 -0.18,265.24 -0.93,265.73 -1.59,267.01"/>
    </edge>
    <edge id=":11021721336_0" function="internal">
        <lane id=":11021721336_0_0" index="0" allow="delivery bicycle" speed="3.90" length="2.56" shape="8.55,312.79 7.85,312.77 7.32,312.53 6.97,312.06 6.79,311.39"/>
    </edge>
    <edge id=":11021721336_1" function="internal">
        <lane id=":11021721336_1_0" index="0" disallow="pedestrian tram rail_urban rail rail_electric rail_fast ship container cable_car subway aircraft wheelchair scooter drone" speed="3.65" length="4.67" shape="8.55,312.79 7.44,313.72 7.13,314.55 7.61,315.31 8.89,315.97"/>
    </edge>
    <edge id=":11021721336_2" function="internal">
        <lane id=":11021721336_2_0" index="0" allow="delivery bicycle" speed="6.08" length="7.69" shape="3.61,311.76 4.15,313.79 5.21,315.17 6.79,315.90 8.89,315.97"/>
    </edge>
    <edge id=":11021721336_3" function="internal">
        <lane id=":11021721336_3_0" index="0" allow="pedestrian delivery bicycle" speed="3.65" length="4.67" shape="3.61,311.76 4.55,312.86 5.39,313.16 6.14,312.67 6.79,311.39"/>
    </edge>
    <edge id=":11021721336_w0" function="walkingarea">
        <lane id=":11021721336_w0_0" index="0" allow="pedestrian" speed="2.78" length="3.20" width="3.20" shape="2.03,311.94 5.20,311.57 8.38,311.20"/>
    </edge>
    <edge id=":11021721339_0" function="internal">
        <lane id=":11021721339_0_0" index="0" allow="delivery bicycle" speed="7.49" length="13.61" shape="6.81,168.70 3.67,169.39 1.64,171.29 0.74,174.41 0.96,178.76"/>
    </edge>
    <edge id=":11021721339_1" function="internal">
        <lane id=":11021721339_1_0" index="0" disallow="pedestrian tram rail_urban rail rail_electric rail_fast ship container cable_car subway aircraft wheelchair scooter drone" speed="3.65" length="4.67" shape="6.81,168.70 5.63,169.53 5.25,170.33 5.66,171.13 6.88,171.90"/>
    </edge>
    <edge id=":11021721339_2" function="internal">
        <lane id=":11021721339_2_0" index="0" allow="delivery bicycle" speed="5.89" length="7.97" shape="4.12,178.26 3.92,175.51 4.31,173.53 5.30,172.33 6.88,171.90"/>
    </edge>
    <edge id=":11021721339_w0" function="walkingarea">
        <lane id=":11021721339_w0_0" index="0" allow="pedestrian" speed="2.78" length="8.55" width="3.20" shape="6.91,173.50 6.96,176.50 5.70,178.01 2.54,178.51 -0.62,179.01 6.73,164.10 6.78,167.10"/>
    </edge>
    <edge id=":11021721340_0" function="internal">
        <lane id=":11021721340_0_0" index="0" allow="pedestrian delivery bicycle" speed="3.65" length="4.67" shape="6.75,215.53 7.73,216.59 8.58,216.86 9.31,216.34 9.91,215.03"/>
    </edge>
    <edge id=":11572100279_0" function="internal">
        <lane id=":11572100279_0_0" index="0" disallow="pedestrian tram rail_urban rail rail_electric rail_fast ship container cable_car subway aircraft wheelchair scooter drone" speed="3.65" length="4.67" shape="661.10,360.68 659.95,361.55 659.59,362.37 660.04,363.14 661.28,363.88"/>
    </edge>
    <edge id=":11802270933_0" function="internal">
        <lane id=":11802270933_0_0" index="0" allow="pedestrian delivery bicycle" speed="3.65" length="4.67" shape="409.89,675.49 411.33,675.54 412.12,675.12 412.26,674.24 411.75,672.89"/>
    </edge>
    <edge id=":12035917187_0" function="internal">
        <lane id=":12035917187_0_0" index="0" disallow="pedestrian tram rail_urban rail rail_electric rail_fast ship container cable_car subway aircraft wheelchair scooter drone" speed="3.65" length="4.67" shape="810.35,379.91 809.46,378.77 808.63,378.43 807.86,378.89 807.15,380.15"/>
    </edge>
    <edge id=":12110372037_0" function="internal">
        <lane id=":12110372037_0_0" index="0" disallow="pedestrian tram rail_urban rail rail_electric rail_fast ship container cable_car subway aircraft wheelchair scooter drone" speed="3.65" length="4.67" shape="64.91,408.51 63.95,407.43 63.10,407.14 62.36,407.65 61.73,408.95"/>
    </edge>
    <edge id=":12110372038_0" function="internal">
        <lane id=":12110372038_0_0" index="0" disallow="pedestrian tram rail_urban rail rail_electric rail_fast ship container cable_car subway aircraft wheelchair scooter drone" speed="6.51" length="9.04" shape="77.77,460.99 75.30,460.98 73.42,460.17 72.14,458.58 71.46,456.19"/>
    </edge>
    <edge id=":12110372038_1" function="internal">
        <lane id=":12110372038_1_0" index="0" disallow="pedestrian tram rail_urban rail rail_electric rail_fast ship container cable_car subway aircraft wheelchair scooter drone" speed="13.89" length="14.40" shape="77.77,460.99 63.51,462.94"/>
    </edge>
    <edge id=":12110372038_2" function="internal">
        <lane id=":12110372038_2_0" index="0" disallow="pedestrian tram rail_urban rail rail_electric rail_fast ship container cable_car subway aircraft wheelchair scooter drone" speed="3.65" length="1.44" shape="77.77,460.99 76.69,461.95"/>
    </edge>
    <edge id=":12110372038_9" function="internal">
        <lane id=":12110372038_9_0" index="0" disallow="pedestrian tram rail_urban rail rail_electric rail_fast ship container cable_car subway aircraft wheelchair scooter drone" speed="3.65" length="3.23" shape="76.69,461.95 76.40,462.80 76.91,463.53 78.21,464.17"/>
    </edge>
    <edge id=":12110372038_3" function="internal">
        <lane id=":12110372038_3_0" index="0" disallow="pedestrian tram rail_urban rail rail_electric rail_fast ship container cable_car subway aircraft wheelchair scooter drone" speed="13.89" length="14.40" shape="63.94,466.11 78.21,464.17"/>
    </edge>
    <edge id=":12110372038_4" function="internal">
        <lane id=":12110372038_4_0" index="0" disallow="pedestrian tram rail_urban rail rail_electric rail_fast ship container cable_car subway aircraft wheelchair scooter drone" speed="8.00" length="4.07" shape="63.94,466.11 67.68,465.04 67.82,464.93"/>
    </edge>
    <edge id=":12110372038_5" function="internal">
        <lane id=":12110372038_5_0" index="0" disallow="pedestrian tram rail_urban rail rail_electric rail_fast ship container cable_car subway aircraft wheelchair scooter drone" speed="3.65" length="1.44" shape="63.94,466.11 65.02,465.15"/>
    </edge>
    <edge id=":12110372038_10" function="internal">
        <lane id=":12110372038_10_0" index="0" disallow="pedestrian tram rail_urban rail rail_electric rail_fast ship container cable_car subway aircraft wheelchair scooter drone" speed="8.00" length="10.13" shape="67.82,464.93 70.18,463.04 71.44,460.09 71.46,456.19"/>
    </edge>
    <edge id=":12110372038_11" function="internal">
        <lane id=":12110372038_11_0" index="0" disallow="pedestrian tram rail_urban rail rail_electric rail_fast ship container cable_car subway aircraft wheelchair scooter drone" speed="3.65" length="3.23" shape="65.02,465.15 65.31,464.31 64.80,463.57 63.51,462.94"/>
    </edge>
    <edge id=":12110372038_6" function="internal">
        <lane id=":12110372038_6_0" index="0" disallow="pedestrian tram rail_urban rail rail_electric rail_fast ship container cable_car subway aircraft wheelchair scooter drone" speed="6.50" length="9.03" shape="68.29,456.63 68.28,459.11 67.48,460.98 65.89,462.26 63.51,462.94"/>
    </edge>
    <edge id=":12110372038_7" function="internal">
        <lane id=":12110372038_7_0" index="0" disallow="pedestrian tram rail_urban rail rail_electric rail_fast ship container cable_car subway aircraft wheelchair scooter drone" speed="8.01" length="14.19" shape="68.29,456.63 69.36,460.37 71.37,462.87 74.32,464.14 78.21,464.17"/>
    </edge>
    <edge id=":12110372038_8" function="internal">
        <lane id=":12110372038_8_0" index="0" disallow="pedestrian tram rail_urban rail rail_electric rail_fast ship container cable_car subway aircraft wheelchair scooter drone" speed="3.65" length="4.67" shape="68.29,456.63 69.25,457.71 70.10,458.00 70.83,457.49 71.46,456.19"/>
    </edge>
    <edge id=":1431528226_0" function="internal">
        <lane id=":1431528226_0_0" index="0" disallow="pedestrian tram rail_urban rail rail_electric rail_fast ship container cable_car subway aircraft wheelchair scooter drone" speed="6.40" length="9.04" shape="530.03,540.98 528.31,539.18 527.62,537.28 527.95,535.28 529.31,533.19"/>
    </edge>
    <edge id=":1431528226_1" function="internal">
        <lane id=":1431528226_1_0" index="0" disallow="pedestrian tram rail_urban rail rail_electric rail_fast ship container cable_car subway aircraft wheelchair scooter drone" speed="3.65" length="4.67" shape="530.03,540.98 528.60,540.87 527.79,541.25 527.61,542.13 528.05,543.50"/>
    </edge>
    <edge id=":1431528226_2" function="internal">
        <lane id=":1431528226_2_0" index="0" disallow="pedestrian tram rail_urban rail rail_electric rail_fast ship container cable_car subway aircraft wheelchair scooter drone" speed="8.01" length="10.07" shape="518.71,542.14 520.94,541.28 523.25,541.21 525.62,541.95 528.05,543.50"/>
    </edge>
    <edge id=":1431528226_3" function="internal">
        <lane id=":1431528226_3_0" index="0" disallow="pedestrian tram rail_urban rail rail_electric rail_fast ship container cable_car subway aircraft wheelchair scooter drone" speed="16.67" length="13.47" shape="518.71,542.14 522.26,540.02 524.55,538.32 526.57,536.30 529.31,533.19"/>
        <lane id=":1431528226_3_1" index="1" disallow="pedestrian tram rail_urban rail rail_electric rail_fast ship container cable_car subway aircraft wheelchair scooter drone" speed="16.67" length="13.47" shape="517.11,539.37 520.39,537.40 522.51,535.83 524.37,533.96 526.91,531.08"/>
    </edge>
    <edge id=":1985256154_0" function="internal">
        <lane id=":1985256154_0_0" index="0" disallow="pedestrian tram rail_urban rail rail_electric rail_fast ship container cable_car subway aircraft wheelchair scooter drone" speed="13.89" length="9.69" shape="218.68,364.96 215.26,374.03"/>
    </edge>
    <edge id=":1985256154_1" function="internal">
        <lane id=":1985256154_1_0" index="0" disallow="pedestrian tram rail_urban rail rail_electric rail_fast ship container cable_car subway aircraft wheelchair scooter drone" speed="7.43" length="3.64" shape="218.68,364.96 218.02,368.54"/>
    </edge>
    <edge id=":1985256154_2" function="internal">
        <lane id=":1985256154_2_0" index="0" disallow="pedestrian tram rail_urban rail rail_electric rail_fast ship container cable_car subway aircraft wheelchair scooter drone" speed="3.65" length="1.44" shape="218.68,364.96 219.01,366.36"/>
    </edge>
    <edge id=":1985256154_9" function="internal">
        <lane id=":1985256154_9_0" index="0" disallow="pedestrian tram rail_urban rail rail_electric rail_fast ship container cable_car subway aircraft wheelchair scooter drone" speed="7.43" length="11.21" shape="218.02,368.54 218.00,368.66 219.10,371.40 221.99,373.18 226.66,373.99"/>
    </edge>
    <edge id=":1985256154_10" function="internal">
        <lane id=":1985256154_10_0" index="0" disallow="pedestrian tram rail_urban rail rail_electric rail_fast ship container cable_car subway aircraft wheelchair scooter drone" speed="3.65" length="3.23" shape="219.01,366.36 219.61,367.02 220.50,366.93 221.68,366.08"/>
    </edge>
    <edge id=":1985256154_3" function="internal">
        <lane id=":1985256154_3_0" index="0" disallow="pedestrian tram rail_urban rail rail_electric rail_fast ship container cable_car subway aircraft wheelchair scooter drone" speed="5.78" length="8.50" shape="226.85,370.80 223.98,370.35 222.16,369.42 221.39,367.99 221.68,366.08"/>
    </edge>
    <edge id=":1985256154_4" function="internal">
        <lane id=":1985256154_4_0" index="0" disallow="pedestrian tram rail_urban rail rail_electric rail_fast ship container cable_car subway aircraft wheelchair scooter drone" speed="8.58" length="12.68" shape="226.85,370.80 222.33,370.77 218.88,371.30 216.53,372.39 215.26,374.03"/>
    </edge>
    <edge id=":1985256154_5" function="internal">
        <lane id=":1985256154_5_0" index="0" disallow="pedestrian tram rail_urban rail rail_electric rail_fast ship container cable_car subway aircraft wheelchair scooter drone" speed="3.65" length="4.67" shape="226.85,370.80 225.61,371.52 225.16,372.30 225.51,373.12 226.66,373.99"/>
    </edge>
    <edge id=":1985256154_6" function="internal">
        <lane id=":1985256154_6_0" index="0" disallow="pedestrian tram rail_urban rail rail_electric rail_fast ship container cable_car subway aircraft wheelchair scooter drone" speed="7.22" length="4.73" shape="218.25,375.16 219.01,374.47 220.66,374.05 222.66,373.92"/>
    </edge>
    <edge id=":1985256154_7" function="internal">
        <lane id=":1985256154_7_0" index="0" disallow="pedestrian tram rail_urban rail rail_electric rail_fast ship container cable_car subway aircraft wheelchair scooter drone" speed="13.89" length="9.70" shape="218.25,375.16 221.68,366.08"/>
    </edge>
    <edge id=":1985256154_8" function="internal">
        <lane id=":1985256154_8_0" index="0" disallow="pedestrian tram rail_urban rail rail_electric rail_fast ship container cable_car subway aircraft wheelchair scooter drone" speed="3.65" length="1.44" shape="218.25,375.16 217.93,373.75"/>
    </edge>
    <edge id=":1985256154_11" function="internal">
        <lane id=":1985256154_11_0" index="0" disallow="pedestrian tram rail_urban rail rail_electric rail_fast ship container cable_car subway aircraft wheelchair scooter drone" speed="7.22" length="4.01" shape="222.66,373.92 223.22,373.89 226.66,373.99"/>
    </edge>